320
15.95322 0.0 0.0 0.0418879 15.9989 0.0 -0.103034 -0.0550045 16.0748
      Ba  1.97376e-03 -1.32584e-01  1.34133e-01
      Ba -5.67893e-02 -2.17588e-03  4.03009e+00
      Ba -6.11944e-02 -7.72060e-02  8.01833e+00
      Ba -1.02399e-01 -3.57740e-02  1.20900e+01
      Ba  1.58991e+01  3.93818e+00  6.16151e-02
      Ba  1.58368e+01  4.12332e+00  3.99476e+00
      Ba  1.58419e+01  4.09458e+00  8.07886e+00
      Ba  1.59432e+01  3.90047e+00  1.20863e+01
      Ba  1.59341e+01  8.00594e+00  1.38825e-01
      Ba  1.60432e+01  7.85922e+00  3.89935e+00
      Ba  1.59206e+01  7.94912e+00  7.98610e+00
      Ba  1.59199e+01  8.00603e+00  1.20570e+01
      Ba  1.59276e+01  1.20573e+01  1.60279e+01
      Ba  1.61136e+01  1.20240e+01  3.99179e+00
      Ba  1.59700e+01  1.19558e+01  8.03406e+00
      Ba  1.59159e+01  1.19499e+01  1.20573e+01
      Ba  3.97329e+00  9.42696e-03  1.39447e-01
      Ba  3.86464e+00  6.46677e-02  3.91390e+00
      Ba  3.94473e+00 -2.89166e-02  7.99678e+00
      Ba  3.86089e+00 -2.37760e-01  1.20679e+01
      Ba  4.03904e+00  4.02992e+00  5.86951e-02
      Ba  3.99796e+00  4.08314e+00  4.06779e+00
      Ba  3.93598e+00  4.03827e+00  8.04567e+00
      Ba  3.89154e+00  3.86906e+00  1.19597e+01
      Ba  4.11954e+00  7.89080e+00 -8.31858e-02
      Ba  4.05035e+00  8.02203e+00  4.01502e+00
      Ba  3.96265e+00  8.09729e+00  8.02974e+00
      Ba  3.82360e+00  7.96670e+00  1.20816e+01
      Ba  3.96931e+00  1.19314e+01  1.61675e+01
      Ba  4.05403e+00  1.19241e+01  3.98149e+00
      Ba  3.90272e+00  1.19683e+01  7.97117e+00
      Ba  3.98987e+00  1.18829e+01  1.21552e+01
      Ba  7.90857e+00  5.14896e-02  4.04277e-02
      Ba  7.90224e+00 -2.64048e-03  4.10942e+00
      Ba  7.81699e+00 -9.75042e-03  7.96219e+00
      Ba  7.88363e+00 -3.76543e-02  1.20255e+01
      Ba  8.02020e+00  4.02827e+00 -1.75446e-01
      Ba  8.02990e+00  4.08347e+00  4.03414e+00
      Ba  7.92266e+00  4.01371e+00  8.02952e+00
      Ba  7.95659e+00  3.94970e+00  1.19351e+01
      Ba  8.02887e+00  7.92568e+00 -7.55714e-02
      Ba  7.95211e+00  7.97331e+00  4.09872e+00
      Ba  7.95093e+00  7.94931e+00  8.10395e+00
      Ba  7.85776e+00  7.93683e+00  1.19427e+01
      Ba  7.95533e+00  1.19475e+01  1.65353e-02
      Ba  8.05186e+00  1.18965e+01  4.01585e+00
      Ba  7.98475e+00  1.18375e+01  7.97988e+00
      Ba  8.00766e+00  1.19310e+01  1.20710e+01
      Ba  1.18327e+01 -1.26772e-01  1.60571e+01
      Ba  1.18106e+01  9.57511e-02  4.07074e+00
      Ba  1.18569e+01 -3.52368e-02  8.05479e+00
      Ba  1.18575e+01 -3.88916e-02  1.20849e+01
      Ba  1.17970e+01  3.93606e+00  1.61643e+01
      Ba  1.18668e+01  3.93214e+00  4.01835e+00
      Ba  1.19373e+01  3.79105e+00  8.13036e+00
      Ba  1.20505e+01  3.93845e+00  1.21545e+01
      Ba  1.17758e+01  8.06563e+00  1.61191e+01
      Ba  1.19986e+01  8.02742e+00  3.97550e+00
      Ba  1.19897e+01  8.06643e+00  7.97844e+00
      Ba  1.19102e+01  7.97457e+00  1.20429e+01
      Ba  1.18520e+01  1.20000e+01  1.60723e+01
      Ba  1.20631e+01  1.19292e+01  3.94886e+00
      Ba  1.19772e+01  1.20251e+01  8.07659e+00
      Ba  1.18311e+01  1.19771e+01  1.21744e+01
      Ti  1.97219e+00  2.12495e+00  2.04418e+00
      Ti  2.00557e+00  1.99058e+00  6.06165e+00
      Ti  1.99108e+00  1.78928e+00  1.00740e+01
      Ti  1.94553e+00  1.87969e+00  1.41282e+01
      Ti  1.98717e+00  5.98484e+00  2.05804e+00
      Ti  1.94964e+00  5.95466e+00  6.15401e+00
      Ti  1.87676e+00  5.87259e+00  1.00689e+01
      Ti  1.99344e+00  5.88686e+00  1.41219e+01
      Ti  1.90307e+00  9.93218e+00  1.83030e+00
      Ti  2.02193e+00  1.00099e+01  5.94244e+00
      Ti  2.03786e+00  9.98789e+00  9.93510e+00
      Ti  1.92735e+00  9.94007e+00  1.39936e+01
      Ti  2.11692e+00  1.39927e+01  1.99441e+00
      Ti  2.03606e+00  1.40453e+01  6.06011e+00
      Ti  1.91277e+00  1.38771e+01  1.00689e+01
      Ti  2.02867e+00  1.38859e+01  1.41333e+01
      Ti  6.11705e+00  2.08037e+00  2.03795e+00
      Ti  5.99755e+00  2.06040e+00  6.08058e+00
      Ti  5.94713e+00  1.80729e+00  1.01031e+01
      Ti  5.95220e+00  2.00468e+00  1.40591e+01
      Ti  5.98816e+00  6.00832e+00  2.01824e+00
      Ti  5.97217e+00  6.09139e+00  6.08497e+00
      Ti  5.79044e+00  5.84028e+00  9.97399e+00
      Ti  5.95234e+00  5.92742e+00  1.39804e+01
      Ti  5.92883e+00  9.88844e+00  1.91186e+00
      Ti  5.99257e+00  1.00387e+01  6.00113e+00
      Ti  6.00538e+00  9.85911e+00  9.98945e+00
      Ti  6.03451e+00  9.94992e+00  1.40605e+01
      Ti  6.08137e+00  1.40565e+01  2.04721e+00
      Ti  5.87701e+00  1.40156e+01  5.97498e+00
      Ti  5.90206e+00  1.38473e+01  9.93509e+00
      Ti  5.93763e+00  1.39470e+01  1.40499e+01
      Ti  9.92088e+00  1.93768e+00  1.97183e+00
      Ti  1.00168e+01  2.00881e+00  6.09825e+00
      Ti  9.97041e+00  2.02647e+00  1.00484e+01
      Ti  9.95820e+00  1.83255e+00  1.40117e+01
      Ti  1.00087e+01  5.97225e+00  1.92964e+00
      Ti  9.91824e+00  5.99563e+00  6.04861e+00
      Ti  9.82056e+00  6.03935e+00  9.92361e+00
      Ti  1.00237e+01  5.84724e+00  1.39265e+01
      Ti  9.91816e+00  9.83433e+00  1.85913e+00
      Ti  1.01253e+01  9.96432e+00  5.89647e+00
      Ti  9.98404e+00  1.00445e+01  9.89670e+00
      Ti  9.91042e+00  9.84416e+00  1.39996e+01
      Ti  9.93862e+00  1.38527e+01  1.97473e+00
      Ti  9.91364e+00  1.39311e+01  5.94487e+00
      Ti  9.75428e+00  1.40682e+01  9.99078e+00
      Ti  9.82618e+00  1.38987e+01  1.40304e+01
      Ti  1.39423e+01  1.97181e+00  2.06499e+00
      Ti  1.40125e+01  1.96865e+00  6.09097e+00
      Ti  1.40236e+01  1.96141e+00  1.01444e+01
      Ti  1.39307e+01  1.97716e+00  1.41699e+01
      Ti  1.39335e+01  5.98931e+00  1.98622e+00
      Ti  1.38211e+01  6.07253e+00  5.95855e+00
      Ti  1.38395e+01  6.00699e+00  9.99035e+00
      Ti  1.38433e+01  6.08634e+00  1.39787e+01
      Ti  1.39370e+01  9.89656e+00  2.04382e+00
      Ti  1.40720e+01  1.00451e+01  6.07135e+00
      Ti  1.39646e+01  1.00272e+01  1.01175e+01
      Ti  1.39441e+01  1.00500e+01  1.41376e+01
      Ti  1.39746e+01  1.39307e+01  2.07388e+00
      Ti  1.38462e+01  1.39960e+01  6.06872e+00
      Ti  1.38578e+01  1.40106e+01  1.01611e+01
      Ti  1.39230e+01  1.40459e+01  1.40797e+01
       O  1.59134e+01  2.04612e+00  1.95334e+00
       O  1.58391e+01  2.01829e+00  5.89019e+00
       O  1.58787e+01  2.00934e+00  1.00577e+01
       O  1.59138e+01  1.93454e+00  1.38902e+01
       O  1.59462e+01  5.98046e+00  1.98768e+00
       O  1.60134e+01  5.98678e+00  5.97758e+00
       O  1.59351e+01  6.06723e+00  9.94443e+00
       O  1.57752e+01  6.01216e+00  1.39544e+01
       O  1.59404e+01  9.93276e+00  1.99114e+00
       O  1.59163e+01  1.00339e+01  6.02517e+00
       O  1.58833e+01  1.00255e+01  9.93587e+00
       O  1.58414e+01  1.01540e+01  1.41165e+01
       O  1.59047e+01  1.39487e+01  1.96085e+00
       O  1.60385e+01  1.39710e+01  5.96917e+00
       O  1.60177e+01  1.39162e+01  1.00038e+01
       O  1.58522e+01  1.39490e+01  1.41298e+01
       O  3.83410e+00  2.02425e+00  1.94889e+00
       O  3.90857e+00  1.99605e+00  5.93983e+00
       O  3.83693e+00  1.94395e+00  9.95206e+00
       O  3.85183e+00  2.04438e+00  1.41094e+01
       O  4.04987e+00  5.99272e+00  1.95601e+00
       O  3.99552e+00  5.97509e+00  6.19648e+00
       O  3.92777e+00  5.96367e+00  9.97506e+00
       O  3.78030e+00  5.93457e+00  1.40087e+01
       O  4.03099e+00  9.99323e+00  1.96746e+00
       O  3.96779e+00  1.00277e+01  6.11146e+00
       O  3.98968e+00  1.00383e+01  1.01490e+01
       O  3.91178e+00  9.96020e+00  1.41153e+01
       O  4.02612e+00  1.39406e+01  2.18136e+00
       O  4.07514e+00  1.39532e+01  5.93051e+00
       O  4.06464e+00  1.39483e+01  9.97647e+00
       O  3.97192e+00  1.39399e+01  1.40662e+01
       O  7.94241e+00  2.07899e+00  1.94752e+00
       O  7.86183e+00  1.92971e+00  6.08656e+00
       O  7.97888e+00  1.93724e+00  9.99235e+00
       O  7.80259e+00  2.03597e+00  1.39123e+01
       O  7.95980e+00  6.17919e+00  2.08768e+00
       O  7.93732e+00  5.86688e+00  6.03714e+00
       O  8.05343e+00  5.94510e+00  1.00655e+01
       O  7.85934e+00  6.00167e+00  1.40908e+01
       O  7.93886e+00  9.94907e+00  2.01322e+00
       O  7.86905e+00  9.94673e+00  6.09314e+00
       O  8.00192e+00  9.88429e+00  1.00454e+01
       O  7.97258e+00  9.88121e+00  1.41261e+01
       O  8.03196e+00  1.40686e+01  2.10506e+00
       O  8.04040e+00  1.38699e+01  6.09111e+00
       O  7.96137e+00  1.39726e+01  1.01491e+01
       O  7.90487e+00  1.40659e+01  1.41746e+01
       O  1.19279e+01  2.06926e+00  2.03385e+00
       O  1.18162e+01  1.97534e+00  6.08442e+00
       O  1.18985e+01  1.86095e+00  1.00132e+01
       O  1.18200e+01  1.88353e+00  1.40084e+01
       O  1.19506e+01  6.07997e+00  2.00090e+00
       O  1.20028e+01  6.11477e+00  6.05488e+00
       O  1.20857e+01  6.05687e+00  1.00111e+01
       O  1.18968e+01  6.10017e+00  1.40565e+01
       O  1.19894e+01  1.00292e+01  1.99934e+00
       O  1.19345e+01  9.91155e+00  5.95499e+00
       O  1.19838e+01  9.88209e+00  1.01143e+01
       O  1.18564e+01  9.97762e+00  1.40363e+01
       O  1.19374e+01  1.41245e+01  2.05118e+00
       O  1.19293e+01  1.39098e+01  6.09929e+00
       O  1.20394e+01  1.41186e+01  1.02029e+01
       O  1.18137e+01  1.38703e+01  1.41124e+01
       O  1.95214e+00 -4.15609e-02  2.00207e+00
       O  1.98326e+00 -1.52025e-02  5.93659e+00
       O  1.96945e+00 -5.03990e-02  9.98919e+00
       O  1.94199e+00 -1.03015e-01  1.40623e+01
       O  1.89607e+00  4.07675e+00  2.04797e+00
       O  2.03637e+00  4.01208e+00  6.02955e+00
       O  1.83727e+00  4.09836e+00  9.96394e+00
       O  1.90984e+00  4.01465e+00  1.40940e+01
       O  2.07962e+00  8.02055e+00  2.08136e+00
       O  2.03066e+00  8.00063e+00  6.15403e+00
       O  1.86700e+00  8.15437e+00  9.95704e+00
       O  1.94594e+00  8.02814e+00  1.40087e+01
       O  2.05245e+00  1.19718e+01  1.91910e+00
       O  2.03716e+00  1.19590e+01  6.00908e+00
       O  2.06068e+00  1.19837e+01  1.01346e+01
       O  1.99401e+00  1.20067e+01  1.40946e+01
       O  6.00848e+00 -3.40524e-02  1.94483e+00
       O  5.86937e+00 -9.10834e-02  6.01959e+00
       O  6.03507e+00 -3.04040e-02  1.01485e+01
       O  5.79619e+00 -1.07080e-02  1.40729e+01
       O  6.05140e+00  3.97242e+00  2.04348e+00
       O  5.92433e+00  3.96672e+00  6.06921e+00
       O  5.94699e+00  4.01426e+00  1.01511e+01
       O  5.80562e+00  4.04466e+00  1.41104e+01
       O  5.92190e+00  7.98301e+00  2.01549e+00
       O  6.02274e+00  7.92316e+00  6.14354e+00
       O  5.92850e+00  7.97602e+00  1.00542e+01
       O  5.88294e+00  7.96828e+00  1.40027e+01
       O  6.02273e+00  1.18961e+01  2.05697e+00
       O  5.98317e+00  1.19335e+01  6.10181e+00
       O  6.04127e+00  1.20000e+01  1.00409e+01
       O  5.98446e+00  1.19412e+01  1.40950e+01
       O  9.89234e+00  1.15767e-01  1.95218e+00
       O  9.89000e+00 -4.74447e-02  6.03410e+00
       O  9.80513e+00 -7.67523e-02  1.00388e+01
       O  9.74789e+00  8.63352e-03  1.41057e+01
       O  9.96799e+00  4.09596e+00  1.97367e+00
       O  9.98889e+00  4.00415e+00  5.99180e+00
       O  1.00797e+01  3.91066e+00  9.93580e+00
       O  9.81033e+00  4.01538e+00  1.39175e+01
       O  9.88471e+00  8.01738e+00  1.99433e+00
       O  9.85992e+00  7.94979e+00  6.05506e+00
       O  1.00571e+01  7.89904e+00  1.01584e+01
       O  9.87321e+00  7.97747e+00  1.40985e+01
       O  9.97284e+00  1.20291e+01  1.84402e+00
       O  9.96012e+00  1.19475e+01  5.94158e+00
       O  1.00528e+01  1.19324e+01  1.00644e+01
       O  9.74610e+00  1.19720e+01  1.41542e+01
       O  1.39842e+01  5.75773e-02  2.00243e+00
       O  1.38558e+01 -2.94553e-02  6.07369e+00
       O  1.40269e+01 -4.95271e-03  1.01551e+01
       O  1.37675e+01 -8.32187e-02  1.39835e+01
       O  1.39318e+01  4.01237e+00  1.97453e+00
       O  1.39367e+01  4.11707e+00  5.97674e+00
       O  1.38532e+01  3.84296e+00  1.00789e+01
       O  1.38081e+01  3.81064e+00  1.41271e+01
       O  1.39175e+01  7.95659e+00  1.94631e+00
       O  1.40140e+01  7.95021e+00  5.94749e+00
       O  1.40544e+01  7.96993e+00  1.00923e+01
       O  1.38539e+01  7.90309e+00  1.39402e+01
       O  1.40446e+01  1.20233e+01  2.05164e+00
       O  1.38800e+01  1.20052e+01  6.11972e+00
       O  1.39838e+01  1.19320e+01  9.93219e+00
       O  1.37965e+01  1.19375e+01  1.40366e+01
       O  1.95452e+00  1.99850e+00 -8.55703e-02
       O  1.95248e+00  2.01296e+00  3.96834e+00
       O  1.90527e+00  2.09985e+00  7.95447e+00
       O  1.94961e+00  1.98884e+00  1.19634e+01
       O  1.95531e+00  5.98552e+00  1.60550e+01
       O  2.07997e+00  5.99946e+00  3.96842e+00
       O  2.00426e+00  6.08147e+00  7.96564e+00
       O  1.85996e+00  6.07363e+00  1.19758e+01
       O  1.90382e+00  9.92369e+00  1.61343e+01
       O  1.96906e+00  9.88546e+00  4.05127e+00
       O  2.07848e+00  1.00110e+01  8.07614e+00
       O  1.92907e+00  9.98865e+00  1.21067e+01
       O  2.18893e+00  1.40719e+01 -3.83392e-02
       O  1.99430e+00  1.40842e+01  3.97281e+00
       O  1.98613e+00  1.40915e+01  7.90017e+00
       O  1.91109e+00  1.39192e+01  1.20402e+01
       O  5.78505e+00  2.03855e+00  1.60029e+01
       O  5.98406e+00  2.08933e+00  3.97775e+00
       O  5.98902e+00  1.94798e+00  8.02981e+00
       O  5.88193e+00  2.03739e+00  1.19644e+01
       O  5.91513e+00  5.93759e+00  1.61581e+01
       O  5.92868e+00  6.02545e+00  4.14903e+00
       O  6.05209e+00  5.89560e+00  8.10558e+00
       O  5.89547e+00  6.01463e+00  1.21554e+01
       O  6.03371e+00  9.94084e+00 -5.66081e-02
       O  5.97691e+00  9.95592e+00  4.10781e+00
       O  5.89929e+00  9.98246e+00  8.11253e+00
       O  5.98798e+00  9.96577e+00  1.20994e+01
       O  5.90469e+00  1.40720e+01  1.95647e-01
       O  6.00444e+00  1.39325e+01  4.02780e+00
       O  5.95444e+00  1.39224e+01  8.09198e+00
       O  5.93456e+00  1.38974e+01  1.22015e+01
       O  1.00189e+01  2.22129e+00 -6.39405e-02
       O  9.99141e+00  1.98867e+00  3.88705e+00
       O  9.84239e+00  2.00510e+00  8.04947e+00
       O  9.94784e+00  1.91433e+00  1.19988e+01
       O  1.00299e+01  6.03182e+00  4.31592e-02
       O  1.00468e+01  6.02788e+00  4.18523e+00
       O  1.00067e+01  5.96212e+00  8.13348e+00
       O  1.00075e+01  5.98285e+00  1.21388e+01
       O  9.86404e+00  9.87877e+00  1.61006e+01
       O  9.97215e+00  9.96080e+00  4.02984e+00
       O  1.00144e+01  9.98972e+00  8.08681e+00
       O  9.91593e+00  9.99925e+00  1.21795e+01
       O  9.93042e+00  1.40187e+01  1.26197e-01
       O  9.97960e+00  1.40154e+01  4.00265e+00
       O  9.88784e+00  1.40142e+01  8.12847e+00
       O  9.88834e+00  1.39894e+01  1.20963e+01
       O  1.38124e+01  1.84520e+00  1.60051e+01
       O  1.38595e+01  1.96367e+00  3.94534e+00
       O  1.39346e+01  1.99242e+00  7.89791e+00
       O  1.38851e+01  1.96661e+00  1.20685e+01
       O  1.39434e+01  6.00508e+00  1.61094e+01
       O  1.38926e+01  6.09163e+00  4.03805e+00
       O  1.39264e+01  5.98794e+00  8.08774e+00
       O  1.39398e+01  5.82447e+00  1.20650e+01
       O  1.39842e+01  9.97221e+00 -3.98182e-02
       O  1.38786e+01  9.89645e+00  3.95964e+00
       O  1.39762e+01  1.00161e+01  7.94364e+00
       O  1.39620e+01  1.01155e+01  1.20572e+01
       O  1.39087e+01  1.40077e+01 -2.56971e-02
       O  1.40530e+01  1.40903e+01  4.07601e+00
       O  1.39931e+01  1.40436e+01  7.98521e+00
       O  1.39349e+01  1.39012e+01  1.20377e+01
